648
CELL: 26.34300 26.34300 26.34300 90 90 90
Cu    5.656106    0.000000   20.686630
Cu    5.656106   26.343000   20.686630
Cu    5.656106   13.171500    7.515131
Cu   18.827606    0.000000    7.515131
Cu   18.827606   26.343000    7.515131
Cu   18.827606   13.171500   20.686630
Cu   20.686630    0.000000   20.686630
Cu   20.686630   26.343000   20.686630
Cu   20.686630   13.171500    7.515131
Cu    7.515131    0.000000    7.515131
Cu    7.515131   26.343000    7.515131
Cu    7.515131   13.171500   20.686630
Cu   20.686630    0.000000    5.656106
Cu   20.686630   26.343000    5.656106
Cu   20.686630   13.171500   18.827606
Cu    7.515131    0.000000   18.827606
Cu    7.515131   26.343000   18.827606
Cu    7.515131   13.171500    5.656106
Cu    5.656106    0.000000    5.656106
Cu    5.656106   26.343000    5.656106
Cu    5.656106   13.171500   18.827606
Cu   18.827606    0.000000   18.827606
Cu   18.827606   26.343000   18.827606
Cu   18.827606   13.171500    5.656106
Cu    5.656106   20.686630    0.000000
Cu    5.656106   20.686630   26.343000
Cu    5.656106    7.515131   13.171500
Cu   18.827606   20.686630   13.171500
Cu   18.827606    7.515131    0.000000
Cu   18.827606    7.515131   26.343000
Cu    5.656106    5.656106    0.000000
Cu    5.656106    5.656106   26.343000
Cu    5.656106   18.827606   13.171500
Cu   18.827606    5.656106   13.171500
Cu   18.827606   18.827606    0.000000
Cu   18.827606   18.827606   26.343000
Cu   20.686630    5.656106    0.000000
Cu   20.686630    5.656106   26.343000
Cu   20.686630   18.827606   13.171500
Cu    7.515131    5.656106   13.171500
Cu    7.515131   18.827606    0.000000
Cu    7.515131   18.827606   26.343000
Cu   20.686630   20.686630    0.000000
Cu   20.686630   20.686630   26.343000
Cu   20.686630    7.515131   13.171500
Cu    7.515131   20.686630   13.171500
Cu    7.515131    7.515131    0.000000
Cu    7.515131    7.515131   26.343000
Cu    0.000000   20.686630   20.686630
Cu   26.343000   20.686630   20.686630
Cu    0.000000    7.515131    7.515131
Cu   26.343000    7.515131    7.515131
Cu   13.171500   20.686630    7.515131
Cu   13.171500    7.515131   20.686630
Cu    0.000000   20.686630    5.656106
Cu   26.343000   20.686630    5.656106
Cu    0.000000    7.515131   18.827606
Cu   26.343000    7.515131   18.827606
Cu   13.171500   20.686630   18.827606
Cu   13.171500    7.515131    5.656106
Cu    0.000000    5.656106    5.656106
Cu   26.343000    5.656106    5.656106
Cu    0.000000   18.827606   18.827606
Cu   26.343000   18.827606   18.827606
Cu   13.171500    5.656106   18.827606
Cu   13.171500   18.827606    5.656106
Cu    0.000000    5.656106   20.686630
Cu   26.343000    5.656106   20.686630
Cu    0.000000   18.827606    7.515131
Cu   26.343000   18.827606    7.515131
Cu   13.171500    5.656106    7.515131
Cu   13.171500   18.827606   20.686630
 H   16.327391   16.327391   19.177704
 H   16.327391    3.155891    6.006204
 H    3.155891   16.327391    6.006204
 H    3.155891    3.155891   19.177704
 H   23.187109   23.187109   19.177704
 H   23.187109   10.015609    6.006204
 H   10.015609   23.187109    6.006204
 H   10.015609   10.015609   19.177704
 H   23.187109   16.327391   20.336796
 H   23.187109    3.155891    7.165297
 H   10.015609   16.327391    7.165297
 H   10.015609    3.155891   20.336796
 H   16.327391   23.187109   20.336796
 H   16.327391   10.015609    7.165297
 H    3.155891   23.187109    7.165297
 H    3.155891   10.015609   20.336796
 H   20.336796   23.187109   16.327391
 H   20.336796   10.015609    3.155891
 H    7.165297   23.187109    3.155891
 H    7.165297   10.015609   16.327391
 H   20.336796   16.327391   23.187109
 H   20.336796    3.155891   10.015609
 H    7.165297   16.327391   10.015609
 H    7.165297    3.155891   23.187109
 H   19.177704   16.327391   16.327391
 H   19.177704    3.155891    3.155891
 H    6.006204   16.327391    3.155891
 H    6.006204    3.155891   16.327391
 H   19.177704   23.187109   23.187109
 H   19.177704   10.015609   10.015609
 H    6.006204   23.187109   10.015609
 H    6.006204   10.015609   23.187109
 H   23.187109   19.177704   23.187109
 H   23.187109    6.006204   10.015609
 H   10.015609   19.177704   10.015609
 H   10.015609    6.006204   23.187109
 H   16.327391   19.177704   16.327391
 H   16.327391    6.006204    3.155891
 H    3.155891   19.177704    3.155891
 H    3.155891    6.006204   16.327391
 H   23.187109   20.336796   16.327391
 H   23.187109    7.165297    3.155891
 H   10.015609   20.336796    3.155891
 H   10.015609    7.165297   16.327391
 H   16.327391   20.336796   23.187109
 H   16.327391    7.165297   10.015609
 H    3.155891   20.336796   10.015609
 H    3.155891    7.165297   23.187109
 H   10.015609   10.015609    7.165297
 H   10.015609   23.187109   20.336796
 H   23.187109   10.015609   20.336796
 H   23.187109   23.187109    7.165297
 H    3.155891    3.155891    7.165297
 H    3.155891   16.327391   20.336796
 H   16.327391    3.155891   20.336796
 H   16.327391   16.327391    7.165297
 H   10.015609    3.155891    6.006204
 H   10.015609   16.327391   19.177704
 H   23.187109    3.155891   19.177704
 H   23.187109   16.327391    6.006204
 H    3.155891   10.015609    6.006204
 H    3.155891   23.187109   19.177704
 H   16.327391   10.015609   19.177704
 H   16.327391   23.187109    6.006204
 H    3.155891    6.006204   10.015609
 H    3.155891   19.177704   23.187109
 H   16.327391    6.006204   23.187109
 H   16.327391   19.177704   10.015609
 H   10.015609    6.006204    3.155891
 H   10.015609   19.177704   16.327391
 H   23.187109    6.006204   16.327391
 H   23.187109   19.177704    3.155891
 H   10.015609    7.165297   10.015609
 H   10.015609   20.336796   23.187109
 H   23.187109    7.165297   23.187109
 H   23.187109   20.336796   10.015609
 H    3.155891    7.165297    3.155891
 H    3.155891   20.336796   16.327391
 H   16.327391    7.165297   16.327391
 H   16.327391   20.336796    3.155891
 H    7.165297    3.155891    3.155891
 H    7.165297   16.327391   16.327391
 H   20.336796    3.155891   16.327391
 H   20.336796   16.327391    3.155891
 H    7.165297   10.015609   10.015609
 H    7.165297   23.187109   23.187109
 H   20.336796   10.015609   23.187109
 H   20.336796   23.187109   10.015609
 H    6.006204    3.155891   10.015609
 H    6.006204   16.327391   23.187109
 H   19.177704    3.155891   23.187109
 H   19.177704   16.327391   10.015609
 H    6.006204   10.015609    3.155891
 H    6.006204   23.187109   16.327391
 H   19.177704   10.015609   16.327391
 H   19.177704   23.187109    3.155891
 C    4.689054    8.482446    2.976759
 C    4.689054   21.653948   16.148258
 C   17.860554    8.482446   16.148258
 C   17.860554   21.653948    2.976759
 C    8.482446    4.689054    2.976759
 C    8.482446   17.860554   16.148258
 C   21.653948    4.689054   16.148258
 C   21.653948   17.860554    2.976759
 C    8.482446    8.482446   10.194741
 C    8.482446   21.653948   23.366241
 C   21.653948    8.482446   23.366241
 C   21.653948   21.653948   10.194741
 C    4.689054    4.689054   10.194741
 C    4.689054   17.860554   23.366241
 C   17.860554    4.689054   23.366241
 C   17.860554   17.860554   10.194741
 C   10.194741    8.482446    8.482446
 C   10.194741   21.653948   21.653948
 C   23.366241    8.482446   21.653948
 C   23.366241   21.653948    8.482446
 C   10.194741    4.689054    4.689054
 C   10.194741   17.860554   17.860554
 C   23.366241    4.689054   17.860554
 C   23.366241   17.860554    4.689054
 C    2.976759    4.689054    8.482446
 C    2.976759   17.860554   21.653948
 C   16.148258    4.689054   21.653948
 C   16.148258   17.860554    8.482446
 C    2.976759    8.482446    4.689054
 C    2.976759   21.653948   17.860554
 C   16.148258    8.482446   17.860554
 C   16.148258   21.653948    4.689054
 C    4.689054    2.976759    8.482446
 C    4.689054   16.148258   21.653948
 C   17.860554    2.976759   21.653948
 C   17.860554   16.148258    8.482446
 C    8.482446    2.976759    4.689054
 C    8.482446   16.148258   17.860554
 C   21.653948    2.976759   17.860554
 C   21.653948   16.148258    4.689054
 C    4.689054   10.194741    4.689054
 C    4.689054   23.366241   17.860554
 C   17.860554   10.194741   17.860554
 C   17.860554   23.366241    4.689054
 C    8.482446   10.194741    8.482446
 C    8.482446   23.366241   21.653948
 C   21.653948   10.194741   21.653948
 C   21.653948   23.366241    8.482446
 C   17.860554   21.653948   23.366241
 C   17.860554    8.482446   10.194741
 C    4.689054   21.653948   10.194741
 C    4.689054    8.482446   23.366241
 C   21.653948   17.860554   23.366241
 C   21.653948    4.689054   10.194741
 C    8.482446   17.860554   10.194741
 C    8.482446    4.689054   23.366241
 C   17.860554   17.860554   16.148258
 C   17.860554    4.689054    2.976759
 C    4.689054   17.860554    2.976759
 C    4.689054    4.689054   16.148258
 C   21.653948   21.653948   16.148258
 C   21.653948    8.482446    2.976759
 C    8.482446   21.653948    2.976759
 C    8.482446    8.482446   16.148258
 C   17.860554   16.148258   17.860554
 C   17.860554    2.976759    4.689054
 C    4.689054   16.148258    4.689054
 C    4.689054    2.976759   17.860554
 C   21.653948   16.148258   21.653948
 C   21.653948    2.976759    8.482446
 C    8.482446   16.148258    8.482446
 C    8.482446    2.976759   21.653948
 C   21.653948   23.366241   17.860554
 C   21.653948   10.194741    4.689054
 C    8.482446   23.366241    4.689054
 C    8.482446   10.194741   17.860554
 C   17.860554   23.366241   21.653948
 C   17.860554   10.194741    8.482446
 C    4.689054   23.366241    8.482446
 C    4.689054   10.194741   21.653948
 C   23.366241   21.653948   17.860554
 C   23.366241    8.482446    4.689054
 C   10.194741   21.653948    4.689054
 C   10.194741    8.482446   17.860554
 C   23.366241   17.860554   21.653948
 C   23.366241    4.689054    8.482446
 C   10.194741   17.860554    8.482446
 C   10.194741    4.689054   21.653948
 C   16.148258   21.653948   21.653948
 C   16.148258    8.482446    8.482446
 C    2.976759   21.653948    8.482446
 C    2.976759    8.482446   21.653948
 C   16.148258   17.860554   17.860554
 C   16.148258    4.689054    4.689054
 C    2.976759   17.860554    4.689054
 C    2.976759    4.689054   17.860554
 C   18.524397   18.524397   14.981265
 C   18.524397    5.352898    1.809764
 C    5.352898   18.524397    1.809764
 C    5.352898    5.352898   14.981265
 C   20.990103   20.990103   14.981265
 C   20.990103    7.818602    1.809764
 C    7.818602   20.990103    1.809764
 C    7.818602    7.818602   14.981265
 C   20.990103   18.524397   24.533236
 C   20.990103    5.352898   11.361736
 C    7.818602   18.524397   11.361736
 C    7.818602    5.352898   24.533236
 C   18.524397   20.990103   24.533236
 C   18.524397    7.818602   11.361736
 C    5.352898   20.990103   11.361736
 C    5.352898    7.818602   24.533236
 C   24.533236   20.990103   18.524397
 C   24.533236    7.818602    5.352898
 C   11.361736   20.990103    5.352898
 C   11.361736    7.818602   18.524397
 C   24.533236   18.524397   20.990103
 C   24.533236    5.352898    7.818602
 C   11.361736   18.524397    7.818602
 C   11.361736    5.352898   20.990103
 C   14.981265   18.524397   18.524397
 C   14.981265    5.352898    5.352898
 C    1.809764   18.524397    5.352898
 C    1.809764    5.352898   18.524397
 C   14.981265   20.990103   20.990103
 C   14.981265    7.818602    7.818602
 C    1.809764   20.990103    7.818602
 C    1.809764    7.818602   20.990103
 C   20.990103   14.981265   20.990103
 C   20.990103    1.809764    7.818602
 C    7.818602   14.981265    7.818602
 C    7.818602    1.809764   20.990103
 C   18.524397   14.981265   18.524397
 C   18.524397    1.809764    5.352898
 C    5.352898   14.981265    5.352898
 C    5.352898    1.809764   18.524397
 C   20.990103   24.533236   18.524397
 C   20.990103   11.361736    5.352898
 C    7.818602   24.533236    5.352898
 C    7.818602   11.361736   18.524397
 C   18.524397   24.533236   20.990103
 C   18.524397   11.361736    7.818602
 C    5.352898   24.533236    7.818602
 C    5.352898   11.361736   20.990103
 C    7.818602    7.818602   11.361736
 C    7.818602   20.990103   24.533236
 C   20.990103    7.818602   24.533236
 C   20.990103   20.990103   11.361736
 C    5.352898    5.352898   11.361736
 C    5.352898   18.524397   24.533236
 C   18.524397    5.352898   24.533236
 C   18.524397   18.524397   11.361736
 C    7.818602    5.352898    1.809764
 C    7.818602   18.524397   14.981265
 C   20.990103    5.352898   14.981265
 C   20.990103   18.524397    1.809764
 C    5.352898    7.818602    1.809764
 C    5.352898   20.990103   14.981265
 C   18.524397    7.818602   14.981265
 C   18.524397   20.990103    1.809764
 C    5.352898    1.809764    7.818602
 C    5.352898   14.981265   20.990103
 C   18.524397    1.809764   20.990103
 C   18.524397   14.981265    7.818602
 C    7.818602    1.809764    5.352898
 C    7.818602   14.981265   18.524397
 C   20.990103    1.809764   18.524397
 C   20.990103   14.981265    5.352898
 C    7.818602   11.361736    7.818602
 C    7.818602   24.533236   20.990103
 C   20.990103   11.361736   20.990103
 C   20.990103   24.533236    7.818602
 C    5.352898   11.361736    5.352898
 C    5.352898   24.533236   18.524397
 C   18.524397   11.361736   18.524397
 C   18.524397   24.533236    5.352898
 C   11.361736    5.352898    5.352898
 C   11.361736   18.524397   18.524397
 C   24.533236    5.352898   18.524397
 C   24.533236   18.524397    5.352898
 C   11.361736    7.818602    7.818602
 C   11.361736   20.990103   20.990103
 C   24.533236    7.818602   20.990103
 C   24.533236   20.990103    7.818602
 C    1.809764    5.352898    7.818602
 C    1.809764   18.524397   20.990103
 C   14.981265    5.352898   20.990103
 C   14.981265   18.524397    7.818602
 C    1.809764    7.818602    5.352898
 C    1.809764   20.990103   18.524397
 C   14.981265    7.818602   18.524397
 C   14.981265   20.990103    5.352898
 C    5.252794    9.628366    3.543133
 C    5.252794   22.799866   16.714634
 C   18.424295    9.628366   16.714634
 C   18.424295   22.799866    3.543133
 C    7.918706    3.543133    3.543133
 C    7.918706   16.714634   16.714634
 C   21.090206    3.543133   16.714634
 C   21.090206   16.714634    3.543133
 C    7.918706    9.628366    9.628366
 C    7.918706   22.799866   22.799866
 C   21.090206    9.628366   22.799866
 C   21.090206   22.799866    9.628366
 C    5.252794    3.543133    9.628366
 C    5.252794   16.714634   22.799866
 C   18.424295    3.543133   22.799866
 C   18.424295   16.714634    9.628366
 C    9.628366    7.918706    9.628366
 C    9.628366   21.090206   22.799866
 C   22.799866    7.918706   22.799866
 C   22.799866   21.090206    9.628366
 C    9.628366    5.252794    3.543133
 C    9.628366   18.424295   16.714634
 C   22.799866    5.252794   16.714634
 C   22.799866   18.424295    3.543133
 C    3.543133    5.252794    9.628366
 C    3.543133   18.424295   22.799866
 C   16.714634    5.252794   22.799866
 C   16.714634   18.424295    9.628366
 C    3.543133    7.918706    3.543133
 C    3.543133   21.090206   16.714634
 C   16.714634    7.918706   16.714634
 C   16.714634   21.090206    3.543133
 C    3.543133    3.543133    7.918706
 C    3.543133   16.714634   21.090206
 C   16.714634    3.543133   21.090206
 C   16.714634   16.714634    7.918706
 C    9.628366    3.543133    5.252794
 C    9.628366   16.714634   18.424295
 C   22.799866    3.543133   18.424295
 C   22.799866   16.714634    5.252794
 C    3.543133    9.628366    5.252794
 C    3.543133   22.799866   18.424295
 C   16.714634    9.628366   18.424295
 C   16.714634   22.799866    5.252794
 C    9.628366    9.628366    7.918706
 C    9.628366   22.799866   21.090206
 C   22.799866    9.628366   21.090206
 C   22.799866   22.799866    7.918706
 C   16.714634   21.090206   22.799866
 C   16.714634    7.918706    9.628366
 C    3.543133   21.090206    9.628366
 C    3.543133    7.918706   22.799866
 C   22.799866   18.424295   22.799866
 C   22.799866    5.252794    9.628366
 C    9.628366   18.424295    9.628366
 C    9.628366    5.252794   22.799866
 C   16.714634   18.424295   16.714634
 C   16.714634    5.252794    3.543133
 C    3.543133   18.424295    3.543133
 C    3.543133    5.252794   16.714634
 C   22.799866   21.090206   16.714634
 C   22.799866    7.918706    3.543133
 C    9.628366   21.090206    3.543133
 C    9.628366    7.918706   16.714634
 C   18.424295   16.714634   16.714634
 C   18.424295    3.543133    3.543133
 C    5.252794   16.714634    3.543133
 C    5.252794    3.543133   16.714634
 C   21.090206   16.714634   22.799866
 C   21.090206    3.543133    9.628366
 C    7.918706   16.714634    9.628366
 C    7.918706    3.543133   22.799866
 C   21.090206   22.799866   16.714634
 C   21.090206    9.628366    3.543133
 C    7.918706   22.799866    3.543133
 C    7.918706    9.628366   16.714634
 C   18.424295   22.799866   22.799866
 C   18.424295    9.628366    9.628366
 C    5.252794   22.799866    9.628366
 C    5.252794    9.628366   22.799866
 C   22.799866   22.799866   18.424295
 C   22.799866    9.628366    5.252794
 C    9.628366   22.799866    5.252794
 C    9.628366    9.628366   18.424295
 C   22.799866   16.714634   21.090206
 C   22.799866    3.543133    7.918706
 C    9.628366   16.714634    7.918706
 C    9.628366    3.543133   21.090206
 C   16.714634   22.799866   21.090206
 C   16.714634    9.628366    7.918706
 C    3.543133   22.799866    7.918706
 C    3.543133    9.628366   21.090206
 C   16.714634   16.714634   18.424295
 C   16.714634    3.543133    5.252794
 C    3.543133   16.714634    5.252794
 C    3.543133    3.543133   18.424295
 O    4.830253   19.576275    1.376158
 O    4.830253    6.404774   14.547659
 O   18.001753   19.576275   14.547659
 O   18.001753    6.404774    1.376158
 O   21.512749    6.766726    1.376158
 O   21.512749   19.938227   14.547659
 O    8.341248    6.766726   14.547659
 O    8.341248   19.938227    1.376158
 O   21.512749   19.576275   24.966843
 O   21.512749    6.404774   11.795341
 O    8.341248   19.576275   11.795341
 O    8.341248    6.404774   24.966843
 O    4.830253    6.766726   24.966843
 O    4.830253   19.938227   11.795341
 O   18.001753    6.766726   11.795341
 O   18.001753   19.938227   24.966843
 O   24.966843   21.512749   19.576275
 O   24.966843    8.341248    6.404774
 O   11.795341   21.512749    6.404774
 O   11.795341    8.341248   19.576275
 O   24.966843    4.830253    6.766726
 O   24.966843   18.001753   19.938227
 O   11.795341    4.830253   19.938227
 O   11.795341   18.001753    6.766726
 O    1.376158    4.830253   19.576275
 O    1.376158   18.001753    6.404774
 O   14.547659    4.830253    6.404774
 O   14.547659   18.001753   19.576275
 O    1.376158   21.512749    6.766726
 O    1.376158    8.341248   19.938227
 O   14.547659   21.512749   19.938227
 O   14.547659    8.341248    6.766726
 O    6.766726    1.376158   21.512749
 O    6.766726   14.547659    8.341248
 O   19.938227    1.376158    8.341248
 O   19.938227   14.547659   21.512749
 O   19.576275    1.376158    4.830253
 O   19.576275   14.547659   18.001753
 O    6.404774    1.376158   18.001753
 O    6.404774   14.547659    4.830253
 O    6.766726   24.966843    4.830253
 O    6.766726   11.795341   18.001753
 O   19.938227   24.966843   18.001753
 O   19.938227   11.795341    4.830253
 O   19.576275   24.966843   21.512749
 O   19.576275   11.795341    8.341248
 O    6.404774   24.966843    8.341248
 O    6.404774   11.795341   21.512749
 O    6.766726   21.512749   24.966843
 O    6.766726    8.341248   11.795341
 O   19.938227   21.512749   11.795341
 O   19.938227    8.341248   24.966843
 O   19.576275    4.830253   24.966843
 O   19.576275   18.001753   11.795341
 O    6.404774    4.830253   11.795341
 O    6.404774   18.001753   24.966843
 O    6.766726    4.830253    1.376158
 O    6.766726   18.001753   14.547659
 O   19.938227    4.830253   14.547659
 O   19.938227   18.001753    1.376158
 O   19.576275   21.512749    1.376158
 O   19.576275    8.341248   14.547659
 O    6.404774   21.512749   14.547659
 O    6.404774    8.341248    1.376158
 O    4.830253    1.376158    6.766726
 O    4.830253   14.547659   19.938227
 O   18.001753    1.376158   19.938227
 O   18.001753   14.547659    6.766726
 O   21.512749    1.376158   19.576275
 O   21.512749   14.547659    6.404774
 O    8.341248    1.376158    6.404774
 O    8.341248   14.547659   19.576275
 O   21.512749   24.966843    6.766726
 O   21.512749   11.795341   19.938227
 O    8.341248   24.966843   19.938227
 O    8.341248   11.795341    6.766726
 O    4.830253   24.966843   19.576275
 O    4.830253   11.795341    6.404774
 O   18.001753   24.966843    6.404774
 O   18.001753   11.795341   19.576275
 O   24.966843   19.576275    4.830253
 O   24.966843    6.404774   18.001753
 O   11.795341   19.576275   18.001753
 O   11.795341    6.404774    4.830253
 O   24.966843    6.766726   21.512749
 O   24.966843   19.938227    8.341248
 O   11.795341    6.766726    8.341248
 O   11.795341   19.938227   21.512749
 O    1.376158   19.576275   21.512749
 O    1.376158    6.404774    8.341248
 O   14.547659   19.576275    8.341248
 O   14.547659    6.404774   21.512749
 O    1.376158    6.766726    4.830253
 O    1.376158   19.938227   18.001753
 O   14.547659    6.766726   18.001753
 O   14.547659   19.938227    4.830253
 O   21.512749    6.766726   24.966843
 O   21.512749   19.938227   11.795341
 O    8.341248    6.766726   11.795341
 O    8.341248   19.938227   24.966843
 O    4.830253   19.576275   24.966843
 O    4.830253    6.404774   11.795341
 O   18.001753   19.576275   11.795341
 O   18.001753    6.404774   24.966843
 O    4.830253    6.766726    1.376158
 O    4.830253   19.938227   14.547659
 O   18.001753    6.766726   14.547659
 O   18.001753   19.938227    1.376158
 O   21.512749   19.576275    1.376158
 O   21.512749    6.404774   14.547659
 O    8.341248   19.576275   14.547659
 O    8.341248    6.404774    1.376158
 O    1.376158    4.830253    6.766726
 O    1.376158   18.001753   19.938227
 O   14.547659    4.830253   19.938227
 O   14.547659   18.001753    6.766726
 O    1.376158   21.512749   19.576275
 O    1.376158    8.341248    6.404774
 O   14.547659   21.512749    6.404774
 O   14.547659    8.341248   19.576275
 O   24.966843   21.512749    6.766726
 O   24.966843    8.341248   19.938227
 O   11.795341   21.512749   19.938227
 O   11.795341    8.341248    6.766726
 O   24.966843    4.830253   19.576275
 O   24.966843   18.001753    6.404774
 O   11.795341    4.830253    6.404774
 O   11.795341   18.001753   19.576275
 O   19.576275   24.966843    4.830253
 O   19.576275   11.795341   18.001753
 O    6.404774   24.966843   18.001753
 O    6.404774   11.795341    4.830253
 O    6.766726   24.966843   21.512749
 O    6.766726   11.795341    8.341248
 O   19.938227   24.966843    8.341248
 O   19.938227   11.795341   21.512749
 O   19.576275    1.376158   21.512749
 O   19.576275   14.547659    8.341248
 O    6.404774    1.376158    8.341248
 O    6.404774   14.547659   21.512749
 O    6.766726    1.376158    4.830253
 O    6.766726   14.547659   18.001753
 O   19.938227    1.376158   18.001753
 O   19.938227   14.547659    4.830253
 O   19.576275    4.830253    1.376158
 O   19.576275   18.001753   14.547659
 O    6.404774    4.830253   14.547659
 O    6.404774   18.001753    1.376158
 O    6.766726   21.512749    1.376158
 O    6.766726    8.341248   14.547659
 O   19.938227   21.512749   14.547659
 O   19.938227    8.341248    1.376158
 O   19.576275   21.512749   24.966843
 O   19.576275    8.341248   11.795341
 O    6.404774   21.512749   11.795341
 O    6.404774    8.341248   24.966843
 O    6.766726    4.830253   24.966843
 O    6.766726   18.001753   11.795341
 O   19.938227    4.830253   11.795341
 O   19.938227   18.001753   24.966843
 O   21.512749   24.966843   19.576275
 O   21.512749   11.795341    6.404774
 O    8.341248   24.966843    6.404774
 O    8.341248   11.795341   19.576275
 O    4.830253   24.966843    6.766726
 O    4.830253   11.795341   19.938227
 O   18.001753   24.966843   19.938227
 O   18.001753   11.795341    6.766726
 O    4.830253    1.376158   19.576275
 O    4.830253   14.547659    6.404774
 O   18.001753    1.376158    6.404774
 O   18.001753   14.547659   19.576275
 O   21.512749    1.376158    6.766726
 O   21.512749   14.547659   19.938227
 O    8.341248    1.376158   19.938227
 O    8.341248   14.547659    6.766726
 O    1.376158    6.766726   21.512749
 O    1.376158   19.938227    8.341248
 O   14.547659    6.766726    8.341248
 O   14.547659   19.938227   21.512749
 O    1.376158   19.576275    4.830253
 O    1.376158    6.404774   18.001753
 O   14.547659   19.576275   18.001753
 O   14.547659    6.404774    4.830253
 O   24.966843    6.766726    4.830253
 O   24.966843   19.938227   18.001753
 O   11.795341    6.766726   18.001753
 O   11.795341   19.938227    4.830253
 O   24.966843   19.576275   21.512749
 O   24.966843    6.404774    8.341248
 O   11.795341   19.576275    8.341248
 O   11.795341    6.404774   21.512749
